test/data/case5/br2/lfac_case5.m
%% MATPOWER Case Format : Version 2
function mpc = pglib_opf_case5_pjm
mpc.version = '2';

%%-----  Power Flow Data  -----%%
%% system MVA base
mpc.baseMVA = 100.0;
%% bus data
%    bus_i    type    Pd    Qd    Gs    Bs    area    Vm    Va    baseKV    zone    Vmax    Vmin
mpc.bus = [
	1	3	0.0	0.0	0.0	0.0	1	1.0	0.0	0.0	1	1.1	0.9				
	2	1	0.0	0.0	0.0	0.0	1	1.0	0.0	0.0	1	1.1	0.9				
];

%% generator data
%    bus    Pg    Qg    Qmax    Qmin    Vg    mBase    status    Pmax    Pmin    Pc1    Pc2    Qc1min    Qc1max    Qc2min    Qc2max    ramp_agc    ramp_10    ramp_30    ramp_q    apf
mpc.gen = [
	1	0.0	0.0	0.0	0.0	1.0	0.0	0	0.0	0.0															
];

%% branch data
%    f_bus    t_bus    r    x    b    rateA    rateB    rateC    ratio    angle    status    angmin    angmax
mpc.branch = [
	1	2	0.00304	0.0304	0.00658	426.0	426.0	426.0	0	0	1	-29.999999999999996	29.999999999999996								
];

%% bus names
mpc.bus_name = {
	'Bus 1	LF'
	'Bus 2	LF'
};

